#!sh Packages
 &PACKAGES
 useOBCS=.TRUE.,
 useGGL90=.TRUE.,
 useCHEAPAML=.TRUE.,
 useDIAGNOSTICS=.TRUE.,
 &end
